15
Coordinates from ORCA-job ./TOL E -271.474823854866
  C       1.000000      1.000000      0.000000
  C      -0.500000      1.000000      0.000000
  C      -1.220000      1.000000      1.201000
  C      -2.616000      0.998000      1.186000
  C      -3.300000      0.997000     -0.028000
  C      -2.589000      0.997000     -1.226000
  C      -1.198000      0.998000     -1.214000
  H       1.401000      1.079000      1.016000
  H       1.378000      1.852000     -0.575000
  H       1.375000      0.071000     -0.441000
  H      -0.699000      1.002000      2.155000
  H      -3.167000      0.997000      2.123000
  H      -4.387000      0.995000     -0.039000
  H      -3.122000      0.995000     -2.173000
  H      -0.654000      0.997000     -2.157000
15
Coordinates from ORCA-job ./TOL E -271.475212230090
  C       1.007895      0.999506      0.001769
  C      -0.501168      1.002288      0.000166
  C      -1.225826      1.001674      1.194120
  C      -2.620188      0.997678      1.181965
  C      -3.307276      0.994922     -0.027051
  C      -2.595099      0.995886     -1.223155
  C      -1.204240      0.999796     -1.208982
  H       1.406501      1.076361      1.014568
  H       1.397106      1.843296     -0.573436
  H       1.391842      0.076127     -0.439955
  H      -0.703125      1.004653      2.143894
  H      -3.167372      0.997493      2.117461
  H      -4.390851      0.992789     -0.037238
  H      -3.125512      0.994558     -2.168453
  H      -0.660686      1.000975     -2.147674
15
Coordinates from ORCA-job ./TOL E -271.475272946194
  C       1.009919      0.999473      0.003127
  C      -0.501189      1.002700     -0.000148
  C      -1.228351      1.002020      1.190494
  C      -2.621634      0.997640      1.180457
  C      -3.311202      0.994295     -0.026360
  C      -2.597980      0.995871     -1.222289
  C      -1.207555      1.000347     -1.206905
  H       1.405706      1.075774      1.016468
  H       1.406602      1.838210     -0.574064
  H       1.401027      0.079460     -0.439301
  H      -0.702543      1.005456      2.138726
  H      -3.166644      0.997728      2.116909
  H      -4.394323      0.991685     -0.036232
  H      -3.126928      0.994725     -2.168033
  H      -0.662906      1.002615     -2.144848
15
Coordinates from ORCA-job ./TOL E -271.475281334621
  C       1.009223      0.999608      0.003727
  C      -0.500812      1.002654     -0.000536
  C      -1.228666      1.001908      1.189795
  C      -2.621643      0.997550      1.180435
  C      -3.312036      0.994361     -0.026094
  C      -2.598509      0.996039     -1.222328
  C      -1.208406      1.000435     -1.206864
  H       1.403444      1.076228      1.017829
  H       1.408674      1.836409     -0.574849
  H       1.403284      0.080523     -0.438689
  H      -0.701245      1.005316      2.137448
  H      -3.165858      0.997570      2.117540
  H      -4.395253      0.991610     -0.036043
  H      -3.126925      0.994924     -2.168493
  H      -0.663271      1.002868     -2.144877
15
Coordinates from ORCA-job ./TOL E -271.475283076578
  C       1.008351      0.999713      0.004053
  C      -0.500523      1.002594     -0.000885
  C      -1.228542      1.001737      1.189767
  C      -2.621469      0.997417      1.180594
  C      -3.312068      0.994440     -0.025981
  C      -2.598558      0.996207     -1.222416
  C      -1.208621      1.000516     -1.207204
  H       1.401827      1.077032      1.018513
  H       1.408986      1.835469     -0.575538
  H       1.403727      0.080705     -0.437818
  H      -0.700279      1.005021      2.137064
  H      -3.165333      0.997308      2.118010
  H      -4.395363      0.991701     -0.036076
  H      -3.126782      0.995177     -2.168777
  H      -0.663353      1.002964     -2.145307
15
Coordinates from ORCA-job ./TOL E -271.475283170656
  C       1.008140      0.999725      0.004119
  C      -0.500502      1.002607     -0.001006
  C      -1.228477      1.001646      1.189825
  C      -2.621430      0.997310      1.180635
  C      -3.311974      0.994436     -0.025973
  C      -2.598555      0.996302     -1.222414
  C      -1.208613      1.000618     -1.207360
  H       1.401627      1.077666      1.018537
  H       1.408917      1.835103     -0.575959
  H       1.403620      0.080428     -0.437129
  H      -0.700070      1.004857      2.137024
  H      -3.165246      0.997109      2.118084
  H      -4.395279      0.991720     -0.036130
  H      -3.126785      0.995356     -2.168781
  H      -0.663374      1.003116     -2.145473
