18
Coordinates from ORCA-job ./ETB E -310.772235117399
  C       1.000000      1.000000      0.000000
  C      -0.521000      1.000000      0.000000
  C      -1.087000      1.000000      1.397000
  C      -1.377000      2.208000      2.045000
  C      -1.899000      2.208000      3.339000
  C      -2.135000      1.002000      3.996000
  C      -1.849000     -0.204000      3.358000
  C      -1.328000     -0.207000      2.066000
  H       1.377000      1.001000     -1.028000
  H       1.397000      0.112000      0.504000
  H       1.398000      1.885000      0.508000
  H      -0.891000      0.124000     -0.547000
  H      -0.889000      1.877000     -0.547000
  H      -1.198000      3.156000      1.543000
  H      -2.122000      3.150000      3.833000
  H      -2.541000      1.003000      5.004000
  H      -2.034000     -1.145000      3.868000
  H      -1.111000     -1.156000      1.581000
18
Coordinates from ORCA-job ./ETB E -310.772711518067
  C       1.012918      1.000677     -0.006123
  C      -0.519957      0.999711     -0.002812
  C      -1.104865      0.999832      1.392288
  C      -1.389715      2.201607      2.046560
  C      -1.898249      2.204212      3.343672
  C      -2.131068      1.002151      4.004495
  C      -1.850483     -0.200787      3.363421
  C      -1.342100     -0.201123      2.067286
  H       1.397540      1.001645     -1.029976
  H       1.409495      0.117688      0.500250
  H       1.408470      1.882542      0.502814
  H      -0.885328      0.125241     -0.549674
  H      -0.885425      1.873830     -0.549993
  H      -1.216666      3.145429      1.541063
  H      -2.118011      3.144741      3.835409
  H      -2.531123      1.003297      5.011560
  H      -2.033514     -1.140572      3.871523
  H      -1.131920     -1.146121      1.578235
18
Coordinates from ORCA-job ./ETB E -310.772753042747
  C       1.016981      1.001419     -0.010533
  C      -0.519284      0.999125     -0.002809
  C      -1.106024      0.999734      1.392056
  C      -1.390997      2.199055      2.048905
  C      -1.899104      2.203033      3.344991
  C      -2.131441      1.002160      4.007837
  C      -1.852999     -0.200050      3.364983
  C      -1.344955     -0.198728      2.069233
  H       1.401849      1.001974     -1.033484
  H       1.414220      0.120272      0.497917
  H       1.411198      1.883584      0.498474
  H      -0.882577      0.123106     -0.547754
  H      -0.884833      1.873192     -0.549134
  H      -1.219668      3.141787      1.540474
  H      -2.118264      3.144213      3.835381
  H      -2.530005      1.003257      5.015183
  H      -2.036507     -1.140397      3.871491
  H      -1.137590     -1.142736      1.576790
18
Coordinates from ORCA-job ./ETB E -310.772758851161
  C       1.017445      1.002279     -0.011814
  C      -0.519376      0.998450     -0.002738
  C      -1.105300      0.999461      1.391728
  C      -1.390259      2.198318      2.049849
  C      -1.898724      2.202863      3.345310
  C      -2.132187      1.002159      4.008583
  C      -1.854170     -0.200111      3.365192
  C      -1.345717     -0.198285      2.069876
  H       1.401929      1.002357     -1.034703
  H       1.415080      0.122170      0.498368
  H       1.410165      1.885365      0.497055
  H      -0.880945      0.120836     -0.546267
  H      -0.885210      1.872563     -0.548843
  H      -1.218178      3.140588      1.540268
  H      -2.117152      3.144565      3.835232
  H      -2.530624      1.003222      5.016017
  H      -2.038016     -1.140876      3.870895
  H      -1.138761     -1.141923      1.575991
18
Coordinates from ORCA-job ./ETB E -310.772759907855
  C       1.017121      1.003281     -0.011811
  C      -0.519650      0.997741     -0.002754
  C      -1.104819      0.999051      1.391402
  C      -1.389266      2.198067      2.050121
  C      -1.897848      2.202866      3.345380
  C      -2.132370      1.002172      4.008614
  C      -1.854890     -0.200286      3.365055
  C      -1.346322     -0.198539      2.069908
  H       1.401313      1.002890     -1.034784
  H       1.415261      0.124077      0.499663
  H       1.408411      1.887328      0.496634
  H      -0.879698      0.118907     -0.545363
  H      -0.885967      1.871508     -0.549169
  H      -1.216046      3.140026      1.540145
  H      -2.115576      3.144850      3.835175
  H      -2.530972      1.003288      5.016017
  H      -2.039203     -1.141218      3.870337
  H      -1.139477     -1.142008      1.575430
18
Coordinates from ORCA-job ./ETB E -310.772760124393
  C       1.016938      1.004131     -0.011545
  C      -0.519799      0.997186     -0.002788
  C      -1.104806      0.998673      1.391285
  C      -1.388590      2.197905      2.050138
  C      -1.897090      2.202837      3.345427
  C      -2.132260      1.002188      4.008534
  C      -1.855421     -0.200393      3.364931
  C      -1.346938     -0.198898      2.069764
  H       1.401034      1.003412     -1.034571
  H       1.415686      0.125601      0.500614
  H       1.407286      1.888885      0.496391
  H      -0.878856      0.117676     -0.544952
  H      -0.886702      1.870403     -0.549705
  H      -1.214692      3.139704      1.540098
  H      -2.114283      3.144930      3.835262
  H      -2.530913      1.003418      5.015924
  H      -2.040178     -1.141313      3.870084
  H      -1.140418     -1.142344      1.575109
