18
Coordinates from ORCA-job ./PXL E -310.774997281780
  C       1.000000      1.000000      0.000000
  C      -0.500000      1.000000      0.000000
  C      -1.219000      1.000000      1.200000
  C      -2.617000      0.998000      1.187000
  C      -3.315000      0.997000     -0.025000
  C      -4.815000      0.994000     -0.051000
  C      -2.593000      0.997000     -1.223000
  C      -1.198000      0.998000     -1.212000
  H       1.401000      1.091000      1.015000
  H       1.379000      1.843000     -0.586000
  H       1.374000      0.064000     -0.428000
  H      -0.698000      1.000000      2.154000
  H      -3.153000      0.997000      2.133000
  H      -5.233000      0.928000      0.958000
  H      -5.179000      0.131000     -0.618000
  H      -5.186000      1.914000     -0.514000
  H      -3.116000      0.995000     -2.177000
  H      -0.656000      0.997000     -2.155000
18
Coordinates from ORCA-job ./PXL E -310.775841253565
  C       1.015937      0.999639      0.001907
  C      -0.493796      1.002837      0.001105
  C      -1.219893      1.001394      1.191611
  C      -2.615681      0.995850      1.178883
  C      -3.320805      0.992939     -0.024107
  C      -4.830232      0.993291     -0.049920
  C      -2.591896      0.994529     -1.216198
  C      -1.200295      1.000049     -1.204576
  H       1.414870      1.088743      1.013666
  H       1.406444      1.835304     -0.584145
  H       1.399681      0.069841     -0.427071
  H      -0.699368      1.003727      2.142689
  H      -3.151718      0.994986      2.121418
  H      -5.246522      0.930700      0.956704
  H      -5.207166      0.138549     -0.617576
  H      -5.209413      1.907874     -0.513588
  H      -3.113745      0.992503     -2.167382
  H      -0.660402      1.001246     -2.145419
18
Coordinates from ORCA-job ./PXL E -310.775985989797
  C       1.021695      0.999615      0.003612
  C      -0.489800      1.003319      0.001308
  C      -1.220567      1.001461      1.186901
  C      -2.614696      0.995456      1.174444
  C      -3.324369      0.991887     -0.023916
  C      -4.835567      0.992675     -0.048542
  C      -2.590784      0.994097     -1.213825
  C      -1.201928      1.000290     -1.201718
  H       1.417518      1.088776      1.016017
  H       1.419796      1.830357     -0.584299
  H       1.413509      0.073687     -0.426097
  H      -0.699076      1.004777      2.137678
  H      -3.152354      0.994226      2.116194
  H      -5.249076      0.931599      0.958925
  H      -5.221168      0.143432     -0.618337
  H      -5.221740      1.903984     -0.512807
  H      -3.113126      0.991773     -2.164716
  H      -0.662267      1.002590     -2.142822
18
Coordinates from ORCA-job ./PXL E -310.776003702596
  C       1.021371      0.999775      0.004372
  C      -0.488636      1.003144      0.001068
  C      -1.220707      1.001317      1.186024
  C      -2.614446      0.995304      1.173670
  C      -3.325338      0.991844     -0.024109
  C      -4.835130      0.992536     -0.047782
  C      -2.590372      0.994066     -1.214174
  C      -1.202358      1.000087     -1.201916
  H       1.415506      1.089603      1.017561
  H       1.421898      1.828793     -0.584767
  H       1.416304      0.074828     -0.425284
  H      -0.698661      1.004677      2.136812
  H      -3.153009      0.993910      2.115202
  H      -5.247156      0.931579      0.960453
  H      -5.223682      0.145230     -0.618854
  H      -5.223873      1.903137     -0.512023
  H      -3.113215      0.991682     -2.165040
  H      -0.662496      1.002489     -2.143211
18
Coordinates from ORCA-job ./PXL E -310.776007279862
  C       1.020337      0.999920      0.004797
  C      -0.488296      1.002986      0.000776
  C      -1.220696      1.001184      1.185904
  C      -2.614394      0.995215      1.173588
  C      -3.325588      0.991883     -0.024365
  C      -4.834061      0.992512     -0.047312
  C      -2.590224      0.994048     -1.214785
  C      -1.202443      0.999946     -1.202486
  H       1.413667      1.090562      1.018357
  H       1.421905      1.828003     -0.585248
  H       1.416736      0.075124     -0.424349
  H      -0.698335      1.004432      2.136640
  H      -3.153482      0.993761      2.114938
  H      -5.245421      0.931177      0.961275
  H      -5.223925      0.146213     -0.619281
  H      -5.223961      1.903098     -0.511127
  H      -3.113468      0.991681     -2.165543
  H      -0.662350      1.002256     -2.143778
18
Coordinates from ORCA-job ./PXL E -310.776007405884
  C       1.020082      0.999947      0.004856
  C      -0.488364      1.002986      0.000676
  C      -1.220671      1.001171      1.185945
  C      -2.614405      0.995182      1.173626
  C      -3.325518      0.991871     -0.024459
  C      -4.833807      0.992521     -0.047238
  C      -2.590236      0.994034     -1.214935
  C      -1.202408      0.999950     -1.202650
  H       1.413459      1.091113      1.018362
  H       1.421771      1.827712     -0.585587
  H       1.416605      0.074928     -0.423766
  H      -0.698256      1.004388      2.136637
  H      -3.153585      0.993719      2.114912
  H      -5.245236      0.930729      0.961300
  H      -5.223800      0.146506     -0.619579
  H      -5.223804      1.903331     -0.510595
  H      -3.113602      0.991683     -2.165622
  H      -0.662225      1.002227     -2.143882
