18
Coordinates from ORCA-job ./MXL E -310.775294565255
  C       1.000000      1.000000      0.000000
  C      -0.500000      1.000000      0.000000
  C      -1.219000      1.000000      1.200000
  C      -2.614000      1.002000      1.183000
  C      -3.301000      1.003000     -0.031000
  C      -2.596000      1.003000     -1.239000
  C      -3.321000      1.006000     -2.553000
  C      -1.198000      1.002000     -1.215000
  H       1.401000      0.880000      1.012000
  H       1.376000      1.945000     -0.404000
  H       1.377000      0.170000     -0.607000
  H      -0.698000      0.998000      2.154000
  H      -3.166000      1.003000      2.119000
  H      -4.388000      1.003000     -0.025000
  H      -4.401000      0.888000     -2.415000
  H      -2.973000      0.177000     -3.177000
  H      -3.146000      1.952000     -3.076000
  H      -0.644000      1.000000     -2.152000
18
Coordinates from ORCA-job ./MXL E -310.775955263344
  C       1.008490      1.001458      0.004073
  C      -0.500636      0.995960      0.005119
  C      -1.221665      0.998860      1.200369
  C      -2.613753      1.002339      1.182783
  C      -3.300393      1.002091     -0.027991
  C      -2.600651      0.998897     -1.235979
  C      -3.328817      1.007446     -2.558386
  C      -1.204145      0.994715     -1.203143
  H       1.409002      0.887266      1.012667
  H       1.390558      1.941342     -0.403349
  H       1.397881      0.179859     -0.602197
  H      -0.699319      0.996940      2.150321
  H      -3.164515      1.002982      2.116369
  H      -4.384460      1.002550     -0.025769
  H      -4.405666      0.896529     -2.421823
  H      -2.988093      0.185536     -3.192802
  H      -3.153419      1.947348     -3.088726
  H      -0.651400      0.989882     -2.137535
18
Coordinates from ORCA-job ./MXL E -310.776073150019
  C       1.011064      1.001476      0.006096
  C      -0.500426      0.994879      0.007228
  C      -1.222875      0.998916      1.200806
  C      -2.613604      1.002429      1.182950
  C      -3.300155      1.002134     -0.026460
  C      -2.602993      0.997790     -1.235194
  C      -3.331832      1.007371     -2.559518
  C      -1.207362      0.992565     -1.196955
  H       1.409741      0.888575      1.014920
  H       1.399299      1.938493     -0.402279
  H       1.408684      0.186196     -0.602968
  H      -0.697637      0.996983      2.149158
  H      -3.164455      1.002686      2.116149
  H      -4.384219      1.002696     -0.028356
  H      -4.408196      0.899375     -2.421373
  H      -2.993844      0.190536     -3.201793
  H      -3.157671      1.943570     -3.096719
  H      -0.654519      0.985328     -2.131691
18
Coordinates from ORCA-job ./MXL E -310.776088464177
  C       1.010551      1.001166      0.006789
  C      -0.499902      0.994803      0.007093
  C      -1.222920      0.999028      1.200911
  C      -2.613491      1.002719      1.183041
  C      -3.300073      1.002271     -0.026294
  C      -2.603286      0.997710     -1.235707
  C      -3.332137      1.006895     -2.558640
  C      -1.207692      0.992424     -1.196343
  H       1.407771      0.887075      1.016241
  H       1.401365      1.937922     -0.400477
  H       1.410994      0.188699     -0.604596
  H      -0.696203      0.997207      2.148668
  H      -3.164569      1.003157      2.116258
  H      -4.384343      1.002970     -0.030199
  H      -4.408546      0.899279     -2.418968
  H      -2.994648      0.191821     -3.203754
  H      -3.159024      1.942109     -3.098527
  H      -0.654846      0.984746     -2.131495
18
Coordinates from ORCA-job ./MXL E -310.776092174917
  C       1.009799      1.000910      0.007318
  C      -0.499461      0.994835      0.006569
  C      -1.222761      0.999244      1.200791
  C      -2.613343      1.003125      1.182984
  C      -3.299936      1.002506     -0.026428
  C      -2.603130      0.997730     -1.236291
  C      -3.332191      1.006406     -2.557660
  C      -1.207409      0.992403     -1.196890
  H       1.406029      0.884604      1.017043
  H       1.401947      1.938299     -0.397749
  H       1.411600      0.190577     -0.606300
  H      -0.695146      0.997513      2.148142
  H      -3.164582      1.003851      2.116210
  H      -4.384294      1.003309     -0.031552
  H      -4.408607      0.898659     -2.417012
  H      -2.994889      0.192095     -3.204084
  H      -3.159961      1.941305     -3.098828
  H      -0.654664      0.984631     -2.132263
18
Coordinates from ORCA-job ./MXL E -310.776092559657
  C       1.009637      1.000855      0.007518
  C      -0.499383      0.994807      0.006350
  C      -1.222698      0.999425      1.200673
  C      -2.613283      1.003439      1.182927
  C      -3.299857      1.002695     -0.026507
  C      -2.603001      0.997689     -1.236427
  C      -3.332279      1.006169     -2.557407
  C      -1.207225      0.992264     -1.197238
  H       1.405743      0.882703      1.017090
  H       1.401930      1.939026     -0.395686
  H       1.411642      0.191667     -0.607507
  H      -0.694878      0.997742      2.147902
  H      -3.164554      1.004360      2.116144
  H      -4.384208      1.003555     -0.031894
  H      -4.408678      0.898221     -2.416688
  H      -2.994988      0.191912     -3.203944
  H      -3.160374      1.941104     -3.098678
  H      -0.654546      0.984368     -2.132629
