24
Coordinates from ORCA-job ./PDB E -389.367941600944
  C       1.000000      1.000000      0.000000
  C      -0.523000      1.000000      0.000000
  C      -1.058000      1.000000      1.409000
  C      -1.308000      2.206000      2.073000
  C      -1.688000      2.209000      3.417000
  C      -1.826000      1.005000      4.119000
  C      -2.122000      1.012000      5.598000
  C      -3.609000      1.052000      5.906000
  C      -1.682000     -0.202000      3.424000
  C      -1.239000     -0.208000      2.096000
  H       1.382000      0.999000     -1.025000
  H       1.397000      0.116000      0.511000
  H       1.396000      1.886000      0.509000
  H      -0.895000      0.122000     -0.542000
  H      -0.893000      1.879000     -0.542000
  H      -1.205000      3.153000      1.547000
  H      -1.834000      3.160000      3.923000
  H      -1.628000      1.876000      6.058000
  H      -1.673000      0.127000      6.062000
  H      -4.079000      1.949000      5.490000
  H      -3.764000      1.062000      6.991000
  H      -4.123000      0.177000      5.497000
  H      -1.873000     -1.149000      3.926000
  H      -0.997000     -1.152000      1.617000
24
Coordinates from ORCA-job ./PDB E -389.370628078437
  C       0.986860      0.990501     -0.094351
  C      -0.543730      1.001974      0.007709
  C      -1.021970      1.005335      1.443623
  C      -1.244290      2.205003      2.121783
  C      -1.607535      2.208651      3.467165
  C      -1.770345      1.012502      4.169528
  C      -2.160913      1.018601      5.631897
  C      -3.675241      1.040387      5.863393
  C      -1.576911     -0.187587      3.482174
  C      -1.197633     -0.192698      2.140107
  H       1.309133      0.987613     -1.139656
  H       1.407606      0.106298      0.389942
  H       1.419478      1.869332      0.389239
  H      -0.950928      0.130719     -0.513789
  H      -0.936168      1.881069     -0.511959
  H      -1.140706      3.148792      1.597119
  H      -1.761248      3.157060      3.970967
  H      -1.705979      1.887538      6.117131
  H      -1.730172      0.140489      6.121885
  H      -4.131666      1.927730      5.418811
  H      -3.900228      1.048227      6.934030
  H      -4.154868      0.162256      5.425047
  H      -1.736993     -1.132078      3.991620
  H      -1.019551     -1.138710      1.640586
24
Coordinates from ORCA-job ./PDB E -389.370963517050
  C       0.973794      0.987445     -0.141325
  C      -0.555199      1.001963      0.016585
  C      -0.999511      1.007139      1.463444
  C      -1.209296      2.204417      2.149038
  C      -1.574882      2.208756      3.491714
  C      -1.746568      1.016251      4.196127
  C      -2.178471      1.021385      5.646855
  C      -3.703030      1.034840      5.834084
  C      -1.538180     -0.180579      3.509445
  C      -1.173074     -0.185808      2.166847
  H       1.259908      0.983398     -1.196312
  H       1.408756      0.102786      0.328747
  H       1.424208      1.865370      0.326775
  H      -0.978801      0.130887     -0.491339
  H      -0.961288      1.881485     -0.490960
  H      -1.090071      3.148144      1.627473
  H      -1.728074      3.156801      3.996658
  H      -1.745483      1.893544      6.145536
  H      -1.760812      0.143896      6.148833
  H      -4.149272      1.919119      5.373755
  H      -3.964848      1.040203      6.895195
  H      -4.163562      0.155406      5.378423
  H      -1.669444     -1.124598      4.027735
  H      -1.020798     -1.133250      1.660667
24
Coordinates from ORCA-job ./PDB E -389.370988091197
  C       0.969888      0.988059     -0.150344
  C      -0.557720      1.001424      0.019627
  C      -0.995068      1.006891      1.467355
  C      -1.202171      2.204084      2.155004
  C      -1.568566      2.208955      3.496901
  C      -1.742554      1.016941      4.202536
  C      -2.180530      1.022246      5.650199
  C      -3.706735      1.033825      5.825766
  C      -1.534281     -0.180018      3.514869
  C      -1.168922     -0.185285      2.172906
  H       1.246786      0.983760     -1.207637
  H       1.408961      0.103646      0.316783
  H       1.423235      1.866820      0.313822
  H      -0.983322      0.129007     -0.484641
  H      -0.967624      1.880653     -0.485600
  H      -1.076530      3.147864      1.634432
  H      -1.720688      3.157022      4.002575
  H      -1.753646      1.895631      6.152034
  H      -1.766914      0.144257      6.154796
  H      -4.149674      1.917617      5.361051
  H      -3.977537      1.038451      6.884608
  H      -4.162028      0.154090      5.365237
  H      -1.659528     -1.123855      4.035542
  H      -1.018833     -1.133085      1.666178
24
Coordinates from ORCA-job ./PDB E -389.370992772563
  C       0.968843      0.989130     -0.152130
  C      -0.558170      1.000737      0.020816
  C      -0.994309      1.006438      1.468077
  C      -1.200065      2.203819      2.156558
  C      -1.566440      2.209174      3.498204
  C      -1.741907      1.017314      4.204483
  C      -2.179954      1.022979      5.651266
  C      -3.706718      1.033088      5.823048
  C      -1.535532     -0.180049      3.516085
  C      -1.169482     -0.185481      2.174435
  H       1.242539      0.984664     -1.210228
  H       1.409871      0.105297      0.314415
  H       1.422245      1.868775      0.310494
  H      -0.983036      0.127029     -0.482027
  H      -0.969763      1.879313     -0.484331
  H      -1.072052      3.147464      1.636068
  H      -1.717412      3.157217      4.004414
  H      -1.756025      1.897309      6.153894
  H      -1.767485      0.145045      6.156906
  H      -4.148798      1.916381      5.356482
  H      -3.980375      1.037504      6.881200
  H      -4.159525      0.152922      5.360846
  H      -1.661255     -1.123665      4.037218
  H      -1.019195     -1.133403      1.667806
24
Coordinates from ORCA-job ./PDB E -389.370993650692
  C       0.968934      0.990034     -0.151927
  C      -0.558039      1.000109      0.020991
  C      -0.994505      1.006086      1.467961
  C      -1.199200      2.203640      2.156641
  C      -1.565346      2.209337      3.498270
  C      -1.741997      1.017596      4.204634
  C      -2.179346      1.023567      5.651398
  C      -3.706369      1.032382      5.822851
  C      -1.537163     -0.179997      3.515996
  C      -1.171022     -0.185676      2.174390
  H       1.242035      0.985405     -1.210186
  H       1.410945      0.106824      0.314855
  H       1.421600      1.870349      0.310131
  H      -0.981737      0.125542     -0.481366
  H      -0.970460      1.877980     -0.484737
  H      -1.070662      3.147116      1.635949
  H      -1.715303      3.157373      4.004793
  H      -1.756724      1.898587      6.153851
  H      -1.766534      0.146128      6.157572
  H      -4.148860      1.915133      5.355665
  H      -3.980329      1.036897      6.880925
  H      -4.158082      0.151687      5.360608
  H      -1.664750     -1.123443      4.036975
  H      -1.021088     -1.133660      1.667760
