! DFT B3LYP TZVP def2/J RIJCOSX TIGHTSCF OPT
%MAXCORE 4000

* xyz 0 1
  C    1.000000    1.000000    0.000000
  C   -0.523000    1.000000    0.000000
  C   -1.058000    1.000000    1.409000
  C   -1.308000    2.206000    2.073000
  C   -1.688000    2.209000    3.417000
  C   -1.826000    1.005000    4.119000
  C   -2.122000    1.012000    5.598000
  C   -3.609000    1.052000    5.906000
  C   -1.682000   -0.202000    3.424000
  C   -1.239000   -0.208000    2.096000
  H    1.382000    0.999000   -1.025000
  H    1.397000    0.116000    0.511000
  H    1.396000    1.886000    0.509000
  H   -0.895000    0.122000   -0.542000
  H   -0.893000    1.879000   -0.542000
  H   -1.205000    3.153000    1.547000
  H   -1.834000    3.160000    3.923000
  H   -1.628000    1.876000    6.058000
  H   -1.673000    0.127000    6.062000
  H   -4.079000    1.949000    5.490000
  H   -3.764000    1.062000    6.991000
  H   -4.123000    0.177000    5.497000
  H   -1.873000   -1.149000    3.926000
  H   -0.997000   -1.152000    1.617000
*