! DFT B3LYP TZVP def2/J RIJCOSX TIGHTSCF OPT
%MAXCORE 4000

* xyz 0 1
  C    1.000000    1.000000    0.000000
  C   -0.504000    1.000000    0.000000
  C   -1.189000    1.000000    1.225000
  C   -2.584000    0.998000    1.262000
  C   -3.308000    0.997000    0.075000
  C   -2.638000    0.997000   -1.148000
  C   -1.239000    0.998000   -1.203000
  C   -0.551000    0.997000   -2.541000
  H    1.401000    1.046000    1.018000
  H    1.381000    1.872000   -0.542000
  H    1.378000    0.084000   -0.464000
  H   -0.637000    1.000000    2.163000
  H   -3.101000    0.997000    2.218000
  H   -4.395000    0.995000    0.102000
  H   -3.222000    0.994000   -2.066000
  H   -1.273000    0.997000   -3.364000
  H    0.070000    0.101000   -2.645000
  H    0.071000    1.891000   -2.650000
*