! DFT B3LYP TZVP def2/J RIJCOSX TIGHTSCF OPT
%MAXCORE 4000

* xyz 0 1
  C    1.000000    1.000000    0.000000
  C   -0.500000    1.000000    0.000000
  C   -1.219000    1.000000    1.202000
  C   -2.619000    0.998000    1.197000
  C   -3.394000    1.000000    2.482000
  C   -3.299000    0.994000   -0.028000
  C   -2.594000    0.991000   -1.238000
  C   -3.319000    0.984000   -2.551000
  C   -1.197000    0.998000   -1.215000
  H    1.402000    1.000000    1.018000
  H    1.376000    1.893000   -0.509000
  H    1.376000    0.107000   -0.509000
  H   -0.683000    1.002000    2.149000
  H   -2.729000    1.002000    3.352000
  H   -4.023000    0.106000    2.542000
  H   -4.025000    1.893000    2.539000
  H   -4.387000    0.991000   -0.035000
  H   -4.405000    0.982000   -2.410000
  H   -3.053000    0.089000   -3.123000
  H   -3.057000    1.876000   -3.130000
  H   -0.642000    1.005000   -2.152000
*