! DFT B3LYP TZVP def2/J RIJCOSX TIGHTSCF OPT
%MAXCORE 4000

* xyz 0 1
  C    1.000000    1.000000    0.000000
  C   -0.520000    1.000000    0.000000
  C   -1.079000    1.000000    1.423000
  C   -2.607000    1.002000    1.420000
  C   -3.165000    1.004000    2.834000
  H    1.378000    0.999000   -1.027000
  H    1.391000    0.112000    0.507000
  H    1.391000    1.889000    0.505000
  H   -0.879000    0.117000   -0.541000
  H   -0.879000    1.883000   -0.541000
  H   -0.711000    1.882000    1.961000
  H   -0.713000    0.116000    1.960000
  H   -2.979000    0.119000    0.887000
  H   -2.977000    1.885000    0.886000
  H   -2.838000    0.116000    3.384000
  H   -4.260000    1.004000    2.808000
  H   -2.836000    1.891000    3.383000
*