! DFT B3LYP TZVP def2/J RIJCOSX TIGHTSCF OPT
%MAXCORE 4000

* xyz 0 1
  C    1.000000    1.000000    0.000000
  C   -0.500000    1.000000    0.000000
  C   -1.220000    1.000000    1.201000
  C   -2.616000    0.998000    1.186000
  C   -3.300000    0.997000   -0.028000
  C   -2.589000    0.997000   -1.226000
  C   -1.198000    0.998000   -1.214000
  H    1.401000    1.079000    1.016000
  H    1.378000    1.852000   -0.575000
  H    1.375000    0.071000   -0.441000
  H   -0.699000    1.002000    2.155000
  H   -3.167000    0.997000    2.123000
  H   -4.387000    0.995000   -0.039000
  H   -3.122000    0.995000   -2.173000
  H   -0.654000    0.997000   -2.157000
*