18
Coordinates from ORCA-job ./OXL E -310.774610056279
  C       1.000000      1.000000      0.000000
  C      -0.504000      1.000000      0.000000
  C      -1.189000      1.000000      1.225000
  C      -2.584000      0.998000      1.262000
  C      -3.308000      0.997000      0.075000
  C      -2.638000      0.997000     -1.148000
  C      -1.239000      0.998000     -1.203000
  C      -0.551000      0.997000     -2.541000
  H       1.401000      1.046000      1.018000
  H       1.381000      1.872000     -0.542000
  H       1.378000      0.084000     -0.464000
  H      -0.637000      1.000000      2.163000
  H      -3.101000      0.997000      2.218000
  H      -4.395000      0.995000      0.102000
  H      -3.222000      0.994000     -2.066000
  H      -1.273000      0.997000     -3.364000
  H       0.070000      0.101000     -2.645000
  H       0.071000      1.891000     -2.650000
18
Coordinates from ORCA-job ./OXL E -310.775359357216
  C       0.997349      0.999812     -0.006894
  C      -0.511781      1.001012      0.003888
  C      -1.198546      1.000717      1.221994
  C      -2.590475      0.998036      1.264580
  C      -3.314299      0.995959      0.079628
  C      -2.641280      0.996211     -1.138936
  C      -1.245189      0.998485     -1.196341
  C      -0.546183      0.996943     -2.533942
  H       1.398761      1.041397      1.006272
  H       1.386505      1.864463     -0.551473
  H       1.383640      0.092478     -0.479933
  H      -0.642677      1.002696      2.152791
  H      -3.103847      0.998096      2.219091
  H      -4.397839      0.994362      0.103467
  H      -3.217016      0.994203     -2.057825
  H      -1.264816      0.995201     -3.354272
  H       0.084378      0.110111     -2.643507
  H       0.083316      1.883817     -2.648589
18
Coordinates from ORCA-job ./OXL E -310.775548801848
  C       0.994885      0.999988     -0.008671
  C      -0.515445      1.001084      0.007208
  C      -1.203828      1.001341      1.220555
  C      -2.594215      0.998647      1.266872
  C      -3.318408      0.995918      0.082047
  C      -2.642888      0.995855     -1.134029
  C      -1.248874      0.998184     -1.193137
  C      -0.545957      0.996307     -2.529959
  H       1.395313      1.035539      1.004477
  H       1.391756      1.860231     -0.554278
  H       1.389647      0.101613     -0.491919
  H      -0.642001      1.004397      2.147789
  H      -3.105453      0.999186      2.221866
  H      -4.401360      0.994263      0.102428
  H      -3.211951      0.994092     -2.056976
  H      -1.266011      0.993110     -3.348330
  H       0.093909      0.117067     -2.645533
  H       0.090881      1.877178     -2.650410
18
Coordinates from ORCA-job ./OXL E -310.775565905724
  C       0.994156      1.000207     -0.007341
  C      -0.514942      1.000867      0.007823
  C      -1.204053      1.001606      1.220750
  C      -2.594571      0.999171      1.267367
  C      -3.318794      0.996263      0.082220
  C      -2.642802      0.995690     -1.133840
  C      -1.248892      0.997742     -1.193451
  C      -0.547615      0.995743     -2.529823
  H       1.393907      1.031790      1.006563
  H       1.393023      1.861180     -0.551092
  H       1.391468      0.105205     -0.495326
  H      -0.640306      1.004703      2.147339
  H      -3.105549      0.999914      2.222703
  H      -4.401994      0.994643      0.101416
  H      -3.210003      0.993653     -2.058347
  H      -1.268900      0.991917     -3.347516
  H       0.094899      0.118228     -2.647198
  H       0.090968      1.875477     -2.652247
18
Coordinates from ORCA-job ./OXL E -310.775569953247
  C       0.993677      1.000431     -0.006238
  C      -0.514288      1.000649      0.007906
  C      -1.203834      1.001887      1.221014
  C      -2.594564      0.999736      1.267476
  C      -3.318695      0.996592      0.082235
  C      -2.642650      0.995471     -1.134016
  C      -1.248551      0.997273     -1.193915
  C      -0.548883      0.995092     -2.529916
  H       1.393421      1.027562      1.007967
  H       1.393117      1.863548     -0.546729
  H       1.392166      0.108221     -0.498747
  H      -0.639134      1.004982      2.147230
  H      -3.105468      1.000798      2.222983
  H      -4.402054      0.995103      0.100758
  H      -3.208878      0.993092     -2.059293
  H      -1.270486      0.990728     -3.347518
  H       0.094869      0.118250     -2.647878
  H       0.090234      1.874585     -2.653321
18
Coordinates from ORCA-job ./OXL E -310.775570752561
  C       0.993520      1.000577     -0.006034
  C      -0.514188      1.000544      0.007854
  C      -1.203808      1.002102      1.221101
  C      -2.594568      1.000115      1.267464
  C      -3.318650      0.996767      0.082277
  C      -2.642677      0.995296     -1.134023
  C      -1.248462      0.996981     -1.193988
  C      -0.549133      0.994618     -2.529881
  H       1.393644      1.024514      1.008098
  H       1.392766      1.865586     -0.543777
  H       1.392219      0.110106     -0.501549
  H      -0.638887      1.005248      2.147166
  H      -3.105425      1.001432      2.223011
  H      -4.402027      0.995379      0.100613
  H      -3.208656      0.992705     -2.059445
  H      -1.270438      0.989990     -3.347742
  H       0.094834      0.117860     -2.647688
  H       0.089936      1.874177     -2.653457
