20
Coordinates from ORCA-job ./HEX E -236.987403411252
  C       1.000000      1.000000      0.000000
  C      -0.520000      1.000000      0.000000
  C      -1.079000      1.000000      1.423000
  C      -2.608000      0.998000      1.420000
  C      -3.167000      1.000000      2.842000
  C      -4.687000      0.996000      2.842000
  H       1.378000      1.001000     -1.027000
  H       1.391000      0.111000      0.505000
  H       1.391000      1.888000      0.507000
  H      -0.879000      0.117000     -0.541000
  H      -0.879000      1.883000     -0.541000
  H      -0.713000      1.883000      1.960000
  H      -0.712000      0.117000      1.961000
  H      -2.973000      0.114000      0.883000
  H      -2.975000      1.880000      0.880000
  H      -2.809000      1.885000      3.381000
  H      -2.805000      0.119000      3.385000
  H      -5.080000      1.882000      2.333000
  H      -5.065000      0.999000      3.870000
  H      -5.076000      0.107000      2.337000
20
Coordinates from ORCA-job ./HEX E -236.988768120345
  C       1.038988      1.000065     -0.023886
  C      -0.492286      0.999827     -0.008578
  C      -1.076014      0.999888      1.410009
  C      -2.610805      0.998152      1.432460
  C      -3.194665      0.999868      2.850642
  C      -4.725857      0.996370      2.866054
  H       1.421362      1.000932     -1.048279
  H       1.436314      0.115215      0.480292
  H       1.436031      1.884197      0.481794
  H      -0.857514      0.121244     -0.550664
  H      -0.857785      1.878229     -0.550778
  H      -0.707478      1.879081      1.949935
  H      -0.706337      0.121455      1.950617
  H      -2.978563      0.118338      0.892879
  H      -2.980453      1.875676      0.890266
  H      -2.830732      1.880087      3.390997
  H      -2.826972      0.123403      3.394639
  H      -5.124910      1.878714      2.358684
  H      -5.108010      0.998752      3.890543
  H      -5.121314      0.110506      2.362375
20
Coordinates from ORCA-job ./HEX E -236.988846978200
  C       1.042493      1.000161     -0.026819
  C      -0.489218      0.999673     -0.008410
  C      -1.077066      0.999797      1.406997
  C      -2.609670      0.998227      1.435180
  C      -3.197629      0.999705      2.850440
  C      -4.729276      0.996656      2.868959
  H       1.427054      1.000812     -1.049496
  H       1.442140      0.116864      0.478476
  H       1.441573      1.883168      0.479427
  H      -0.857842      0.122511     -0.551084
  H      -0.858406      1.876396     -0.551414
  H      -0.707112      1.878032      1.948979
  H      -0.705702      0.122638      1.949752
  H      -2.979159      0.119481      0.893701
  H      -2.981035      1.874682      0.891258
  H      -2.830264      1.878274      3.391685
  H      -2.826809      0.124589      3.394960
  H      -5.130352      1.877909      2.361134
  H      -5.113705      0.998501      3.891614
  H      -5.127015      0.111924      2.364661
20
Coordinates from ORCA-job ./HEX E -236.988865613151
  C       1.041391      1.000274     -0.026983
  C      -0.489123      0.999522     -0.007794
  C      -1.077999      0.999749      1.405925
  C      -2.608699      0.998258      1.436092
  C      -3.197622      0.999516      2.849791
  C      -4.728110      0.996906      2.869044
  H       1.427808      1.000641     -1.048765
  H       1.442341      0.118073      0.479631
  H       1.441470      1.882696      0.479934
  H      -0.859786      0.123253     -0.551130
  H      -0.860662      1.875035     -0.551748
  H      -0.706940      1.877124      1.949502
  H      -0.705296      0.123692      1.950472
  H      -2.979581      0.120469      0.893074
  H      -2.981437      1.873836      0.890796
  H      -2.828022      1.876910      3.392030
  H      -2.824960      0.125196      3.394897
  H      -5.130144      1.877570      2.360585
  H      -5.114498      0.998275      3.890805
  H      -5.127130      0.113005      2.363843
20
Coordinates from ORCA-job ./HEX E -236.988868191079
  C       1.040100      1.000355     -0.026570
  C      -0.489588      0.999425     -0.007611
  C      -1.078235      0.999752      1.405949
  C      -2.608461      0.998251      1.436040
  C      -3.197115      0.999381      2.849603
  C      -4.726798      0.997034      2.868582
  H       1.427338      1.000498     -1.048117
  H       1.441444      0.118608      0.480715
  H       1.440366      1.882690      0.480544
  H      -0.860753      0.123423     -0.551240
  H      -0.861838      1.874439     -0.552085
  H      -0.706719      1.876716      1.950060
  H      -0.704980      0.124242      1.951195
  H      -2.979919      0.120954      0.892432
  H      -2.981759      1.873420      0.890278
  H      -2.826798      1.876274      3.392371
  H      -2.824033      0.125269      3.394955
  H      -5.128981      1.877597      2.359901
  H      -5.114043      0.998162      3.890121
  H      -5.126227      0.113508      2.362876
20
Coordinates from ORCA-job ./HEX E -236.988868383014
  C       1.039716      1.000410     -0.026416
  C      -0.489767      0.999361     -0.007648
  C      -1.078207      0.999767      1.406087
  C      -2.608491      0.998237      1.435909
  C      -3.196930      0.999290      2.849644
  C      -4.726413      0.997098      2.868414
  H       1.427197      1.000399     -1.047921
  H       1.441173      0.118830      0.481103
  H       1.439954      1.882827      0.480615
  H      -0.860923      0.123360     -0.551290
  H      -0.862147      1.874215     -0.552296
  H      -0.706584      1.876636      1.950225
  H      -0.704813      0.124430      1.951474
  H      -2.980084      0.121100      0.892184
  H      -2.981921      1.873309      0.890120
  H      -2.826451      1.876007      3.392592
  H      -2.823886      0.125153      3.394989
  H      -5.128543      1.877731      2.359783
  H      -5.113902      0.998113      3.889917
  H      -5.125975      0.113728      2.362516
